54
06/30/2024 17:47, XYZ structure generated by mol3D Class, molSimplify
Ir 	0.000000	0.000000	0.000000
C 	-0.844366	4.347172	0.000000
C 	0.462494	4.828478	-0.000000
C 	-1.058700	2.971607	0.000000
C 	1.539352	3.937936	-0.000000
C 	1.298568	2.545978	-0.000000
N 	0.000000	2.120000	0.000000
H 	-1.681759	5.032889	0.000000
H 	-2.066381	2.578155	0.000000
H 	0.643085	5.895892	-0.000000
H 	2.523334	4.368059	-0.000000
C 	2.376070	1.503562	-0.000000
C 	3.772554	1.764399	-0.000000
C 	1.961038	0.158962	0.000000
C 	4.688502	0.704140	-0.000000
C 	4.244921	-0.618523	-0.000000
C 	2.878818	-0.891047	0.000000
H 	2.525690	-1.913624	0.000000
H 	5.751234	0.911394	-0.000000
F 	4.284514	3.016429	-0.000000
F 	5.140867	-1.636159	0.000000
C 	-0.032737	-4.346785	-0.844754
C 	-0.075071	-4.827589	0.461605
C 	0.004903	-2.971665	-1.058642
C 	-0.079482	-3.936995	1.538411
C 	-0.040828	-2.545494	1.298085
N 	0.000000	-2.120000	0.000000
H 	-0.029146	-5.032544	-1.682104
H 	0.038074	-2.578606	-2.065930
H 	-0.104617	-5.894654	0.641846
H 	-0.112960	-4.366721	2.521997
C 	-0.041658	-1.503068	2.375577
C 	-0.080895	-1.763442	3.771596
C 	0.000000	-0.158962	1.961038
C 	-0.077478	-0.703223	4.687584
C 	-0.035663	0.618945	4.244499
C 	0.003130	0.891010	2.878855
H 	0.035700	1.913201	2.526113
H 	-0.107544	-0.910120	5.749961
F 	-0.122656	-3.014977	4.283062
F 	-0.032782	1.636547	5.140479
C 	-4.403073	0.042238	0.696684
C 	-3.041193	-0.002109	1.000422
C 	-4.802320	0.088449	-0.639713
N 	-2.120000	0.000000	0.000000
C 	-2.479092	0.044534	-1.313531
C 	-3.841905	0.089878	-1.653785
H 	-5.140798	0.040794	1.488625
H 	-2.715731	-0.038226	2.031452
H 	-4.160119	0.125892	-2.688207
H 	-5.854841	0.123131	-0.889766
C 	-1.427146	0.044124	-2.350094
O 	-0.129874	-0.000000	-1.990126
O 	-1.717513	0.083420	-3.535621
