13
03/04/2025 18:56, XYZ structure generated by mol3D Class, molSimplify
In 	0.000000	0.000000	0.000000
O 	-1.520280	1.520280	0.000000
H 	-1.428358	2.469494	0.266729
H 	-2.469484	1.428349	-0.266729
O 	-1.520280	-1.520280	0.000000
H 	-2.475759	-1.422093	0.240874
H 	-1.422084	-2.475750	-0.240874
O 	1.520280	-1.520280	0.000000
H 	1.416470	-2.481382	0.214725
H 	2.481373	-1.416460	-0.214725
O 	1.520280	1.520280	0.000000
H 	2.490677	1.407176	0.161675
H 	1.407166	2.490667	-0.161675
