37

Si        -1.57620        2.36180        0.01780
C         -1.24960        3.51020       -1.41710
H         -0.95580        2.91520       -2.30590
H         -0.42950        4.20830       -1.15110
H         -2.16840        4.08820       -1.64490
C         -2.07220        3.34060        1.52790
H         -1.25520        4.03920        1.80090
H         -2.26320        2.64570        2.37120
H         -2.99390        3.91700        1.30710
O         -0.26000        1.52950        0.34300
O         -2.74590        1.35670       -0.37230
Si         1.31930        1.57730        0.53010
Si        -4.31390        1.16710       -0.56440
C          1.78310        3.07940        1.53690
H          1.44960        3.99530        1.00720
H          2.88370        3.10910        1.67150
H          1.28910        3.02560        2.52870
C          2.14300        1.65620       -1.14280
H          1.81010        2.57030       -1.67560
H          1.86330        0.76060       -1.73450
H          3.24410        1.68490       -1.01140
C          1.87840        0.04240        1.43200
H          1.38540       -0.00260        2.42470
H          2.97910        0.07300        1.56610
H          1.60220       -0.85460        0.84060
C         -5.01510        2.64390       -1.46590
H         -4.82770        3.56160       -0.87130
H         -6.10730        2.50860       -1.60420
H         -4.52440        2.73870       -2.45620
C         -5.13040        0.99700        1.10520
H         -4.94330        1.91270        1.70280
H         -4.70920        0.11770        1.63420
H         -6.22290        0.86040        0.97000
C         -4.62820       -0.36970       -1.57500
H         -4.13990       -0.26630       -2.56570
H         -5.72070       -0.50420       -1.71280
H         -4.21040       -1.25100       -1.04650
