
 OpenBabel03142410403D

 14 13  0  0  0  0  0  0  0  0999 V2000
    3.1117    0.8158   -1.3940 O   0  0  0  0  0  0  0  0  0  0  0  0
    2.5035    0.2178   -0.5193 C   0  0  0  0  0  0  0  0  0  0  0  0
    1.0119    0.1135   -0.5927 C   0  0  0  0  0  0  0  0  0  0  0  0
    3.2352   -0.4172    0.6354 C   0  0  0  0  0  0  0  0  0  0  0  0
    4.7377   -0.3230    0.7389 C   0  0  0  0  0  0  0  0  0  0  0  0
    5.3853    0.2682   -0.1114 O   0  0  0  0  0  0  0  0  0  0  0  0
    5.4522   -0.9568    1.8929 C   0  0  0  0  0  0  0  0  0  0  0  0
    0.6247    0.6297   -1.4972 H   0  0  0  0  0  0  0  0  0  0  0  0
    0.5611    0.5821    0.3070 H   0  0  0  0  0  0  0  0  0  0  0  0
    0.7146   -0.9552   -0.6360 H   0  0  0  0  0  0  0  0  0  0  0  0
    4.7384   -1.4561    2.5816 H   0  0  0  0  0  0  0  0  0  0  0  0
    6.0070   -0.1796    2.4590 H   0  0  0  0  0  0  0  0  0  0  0  0
    6.1702   -1.7146    1.5151 H   0  0  0  0  0  0  0  0  0  0  0  0
    2.7035   -0.9212    1.3622 H   0  0  0  0  0  0  0  0  0  0  0  0
  1  2  2  0  0  0  0
  2  3  1  0  0  0  0
  2  4  1  0  0  0  0
  3  8  1  0  0  0  0
  3  9  1  0  0  0  0
  3 10  1  0  0  0  0
  4  5  2  0  0  0  0
  4 14  1  0  0  0  0
  5  6  1  0  0  0  0
  5  7  1  0  0  0  0
  7 11  1  0  0  0  0
  7 12  1  0  0  0  0
  7 13  1  0  0  0  0
M  END
