61
08/25/2022 15:21, XYZ structure generated by mol3D Class, molSimplify
Fe 	0.000000	0.000000	0.000000
N 	0.288297	2.209056	0.368098
N 	2.194452	0.306683	-0.375276
C 	-0.672609	3.110593	0.362722
H 	-1.639565	2.759525	0.699537
C 	-0.488843	4.426481	-0.038143
H 	-1.307553	5.128961	-0.023396
C 	0.775216	4.806218	-0.461309
H 	0.966058	5.817651	-0.790527
C 	1.791336	3.867009	-0.456509
H 	2.782588	4.124565	-0.797813
C 	3.851585	1.833500	0.405867
H 	4.106359	2.831583	0.728956
C 	4.797833	0.824028	0.414568
H 	5.811815	1.026622	0.729518
C 	4.421778	-0.448971	0.015542
H 	5.129529	-1.263273	0.005746
C 	3.102753	-0.647731	-0.366638
H 	2.754686	-1.622061	-0.684571
C 	1.503525	2.569686	-0.028158
C 	2.551096	1.530170	-0.001547
N 	0.003503	-2.187133	0.190870
N 	-0.035597	-0.204918	2.180456
C 	-0.346764	-3.029023	-0.760526
H 	-0.029990	-2.757489	-1.759448
C 	-1.068358	-4.191732	-0.529671
H 	-1.331730	-4.850160	-1.342854
C 	-1.442551	-4.476345	0.774161
H 	-2.013354	-5.365414	1.002773
C 	-1.075130	-3.600704	1.780559
H 	-1.364716	-3.782171	2.804617
C 	0.553285	-1.934985	3.713037
H 	0.650107	-2.990559	3.917659
C 	0.931264	-0.993026	4.653476
H 	1.315467	-1.302624	5.615276
C 	0.811029	0.351506	4.339184
H 	1.091342	1.117553	5.045412
C 	0.322408	0.685184	3.083875
H 	0.209008	1.719662	2.785694
C 	-0.345515	-2.459553	1.442813
C 	0.070027	-1.494352	2.479776
N 	-2.184701	-0.004037	-0.184914
N 	-0.199413	-0.028522	-2.179465
C 	-3.018893	-0.370708	0.767230
H 	-2.755848	-0.043200	1.764797
C 	-4.163264	-1.121413	0.538447
H 	-4.814328	-1.399738	1.352449
C 	-4.439287	-1.504906	-0.764401
H 	-5.313959	-2.097934	-0.991364
C 	-3.572923	-1.118484	-1.771723
H 	-3.748608	-1.413853	-2.794968
C 	-1.939826	0.560365	-3.699736
H 	-2.996622	0.649015	-3.900529
C 	-1.004808	0.958029	-4.638994
H 	-1.321372	1.351572	-5.594581
C 	0.341660	0.847975	-4.330113
H 	1.102378	1.145063	-5.035146
C 	0.684195	0.347245	-3.082214
H 	1.720551	0.237749	-2.789558
C 	-2.448273	-0.363431	-1.435694
C 	-1.490649	0.069424	-2.472922
