
 OpenBabel03262518553D

 24 25  0  0  0  0  0  0  0  0999 V2000
   -5.9772    0.3675    0.0000 N   0  0  0  0  0  0  0  0  0  0  0  0
   -4.7194    0.9644    0.0000 C   0  0  0  0  0  0  0  0  0  0  0  0
   -3.5974    0.1354    0.0000 C   0  0  0  0  0  0  0  0  0  0  0  0
   -6.0908   -1.0226    0.0000 C   0  0  0  0  0  0  0  0  0  0  0  0
   -4.9605   -1.8254   -0.0000 N   0  0  0  0  0  0  0  0  0  0  0  0
   -3.7451   -1.2158   -0.0000 C   0  0  0  0  0  0  0  0  0  0  0  0
   -2.2758    0.4181    0.0000 N   0  0  0  0  0  0  0  0  0  0  0  0
   -1.6628   -0.7900   -0.0000 C   0  0  0  0  0  0  0  0  0  0  0  0
   -2.5417   -1.8198   -0.0000 N   0  0  0  0  0  0  0  0  0  0  0  0
   -1.5907    1.7097    0.0000 C   0  0  0  0  0  0  0  0  0  0  0  0
   -0.4877    1.5577    0.0000 H   0  0  0  0  0  0  0  0  0  0  0  0
   -1.8584    2.2867    0.9089 H   0  0  0  0  0  0  0  0  0  0  0  0
   -1.8584    2.2867   -0.9089 H   0  0  0  0  0  0  0  0  0  0  0  0
   -4.5931    2.1778    0.0000 O   0  0  0  0  0  0  0  0  0  0  0  0
   -7.2133    1.1697    0.0000 C   0  0  0  0  0  0  0  0  0  0  0  0
   -7.0172    2.2610    0.0000 H   0  0  0  0  0  0  0  0  0  0  0  0
   -7.8167    0.9293    0.9026 H   0  0  0  0  0  0  0  0  0  0  0  0
   -7.8167    0.9293   -0.9026 H   0  0  0  0  0  0  0  0  0  0  0  0
   -7.1975   -1.5420    0.0000 O   0  0  0  0  0  0  0  0  0  0  0  0
   -5.0856   -3.2889   -0.0000 C   0  0  0  0  0  0  0  0  0  0  0  0
   -4.0972   -3.7942   -0.0000 H   0  0  0  0  0  0  0  0  0  0  0  0
   -5.6397   -3.6171   -0.9050 H   0  0  0  0  0  0  0  0  0  0  0  0
   -5.6397   -3.6171    0.9050 H   0  0  0  0  0  0  0  0  0  0  0  0
   -0.5889   -0.9243   -0.0000 H   0  0  0  0  0  0  0  0  0  0  0  0
  1  2  1  0  0  0  0
  1  4  1  0  0  0  0
  1 15  1  0  0  0  0
  2  3  1  0  0  0  0
  2 14  2  0  0  0  0
  3  6  2  0  0  0  0
  3  7  1  0  0  0  0
  4  5  1  0  0  0  0
  4 19  2  0  0  0  0
  5  6  1  0  0  0  0
  5 20  1  0  0  0  0
  6  9  1  0  0  0  0
  7  8  1  0  0  0  0
  7 10  1  0  0  0  0
  8  9  2  0  0  0  0
  8 24  1  0  0  0  0
 10 11  1  0  0  0  0
 10 12  1  0  0  0  0
 10 13  1  0  0  0  0
 15 16  1  0  0  0  0
 15 17  1  0  0  0  0
 15 18  1  0  0  0  0
 20 21  1  0  0  0  0
 20 22  1  0  0  0  0
 20 23  1  0  0  0  0
M  END
