19

Fe         0.06270       -0.08682        0.01956
O          0.25511        1.86157       -0.32379
H          0.39150        2.50564       -1.28994
O          1.42020        2.37906        0.30169
O          1.80436        0.76420        0.26564
O          2.48430        0.75629        1.60047
H          3.40485        1.10660        1.64597
O         -0.45515       -2.55947        1.54690
H         -0.54756       -3.54727        1.47648
O         -0.17119       -2.15312        0.32516
O         -0.28746        0.24708        1.98859
O         -1.09315        1.27400        2.23750
H         -1.10352        1.35430        3.22607
O         -2.81641       -0.08624       -0.15370
H         -3.63592        0.04323       -0.70093
O         -1.81041        0.21481       -0.95809
O          0.91439       -0.98559       -1.75336
O          1.76096       -0.24309       -2.44371
H          2.05821       -0.81864       -3.19762
