87

Co         0.00012        0.00272       -0.01438
N          0.16054        1.90826       -0.14615
N          1.85767        0.43667        0.08819
C         -0.77432        2.87133       -0.16618
H         -1.81348        2.57052       -0.20302
C         -0.50271        4.24838       -0.13996
H         -1.32527        4.96003       -0.13318
C          0.83584        4.61920       -0.11191
C          1.83480        3.64578       -0.11122
H          2.87322        3.95271       -0.07406
C          3.69843        1.97415       -0.00321
H          4.07796        2.98632       -0.07683
C          4.59460        0.90897        0.03193
C          4.12925       -0.40087        0.11338
H          4.78797       -1.26555        0.14275
C          2.74104       -0.57574        0.14523
H          2.34278       -1.57706        0.22527
C          1.46241        2.28450       -0.12932
C          2.30925        1.71547        0.03319
S          6.39235        1.24236       -0.12478
S          1.30460        6.38322        0.03772
O          2.58715        6.51082        0.73911
O          1.23334        6.84059       -1.45083
H          1.41412        7.81065       -1.63252
O          0.27086        7.13157        0.86090
O          6.62555        2.48492       -0.87124
O          7.06356        0.12721       -0.90465
O          6.83049        1.20167        1.36993
H          7.80870        1.32645        1.55662
N          0.07612       -1.92184        0.08028
N         -1.89860       -0.32452       -0.02678
C          1.01323       -3.05914        0.05140
H          2.05206       -2.75511        0.01482
C          0.74410       -4.43633        0.09142
H          1.56683       -5.14768        0.10803
C         -0.59465       -4.80757        0.11818
C         -1.59855       -3.83875        0.10310
H         -2.63768       -4.14349        0.14283
C         -3.73477       -1.87093       -0.10391
H         -4.10149       -2.88903       -0.16163
C         -4.63108       -0.80519       -0.10203
C         -4.17326        0.50908       -0.05301
H         -4.82695        1.37808       -0.05533
C         -2.78615        0.68594       -0.01246
H         -2.39219        1.69008        0.03421
C         -1.22804       -2.47734        0.06590
C         -2.34775       -1.60563       -0.05665
S         -6.42617       -1.14793       -0.26418
S         -1.06365       -6.57019        0.27889
O         -2.36495       -6.68934        0.94595
O         -0.94695       -7.04342       -1.20214
H         -1.11965       -8.01590       -1.37878
O         -0.05447       -7.31111        1.13835
O         -6.64848       -2.41677       -0.96509
O         -7.09104       -0.06173       -1.09172
O         -6.87954       -1.03903        1.22326
H         -7.85943       -1.15824        1.40534
C          0.00112        0.00435        1.80846
N          0.00203        0.00347        2.96992
C          0.00485        0.00610        4.47547
C          0.34182        1.44391        4.91190
H         -0.42038        2.15677        4.58490
H          1.32920        1.75660        4.56073
H          0.36072        1.45710        6.00684
C         -1.39682       -0.43566        4.92659
H         -2.16836        0.26776        4.60072
H         -1.40088       -0.44687        6.02156
H         -1.63765       -1.44690        4.58631
C          1.09832       -0.99859        4.90336
H          2.08982       -0.69586        4.55606
H          0.87205       -2.01389        4.56679
H          1.11625       -1.00611        5.99871
C          0.03359        0.02876       -1.81834
N          0.02948        0.02717       -2.97975
C          0.02124        0.02109       -4.48502
C         -1.08652        1.01073       -4.91170
H         -0.87157        2.02959       -4.57854
H         -2.07290        0.69691       -4.55971
H         -1.10879        1.01500       -6.00695
C          1.41557        0.47952       -4.94268
H          1.64524        1.49441       -4.60558
H          1.41514        0.48840       -6.03769
H          2.19730       -0.21336       -4.61852
C         -0.29879       -1.42164       -4.91734
H         -1.28098       -1.74560       -4.56185
H          0.47351       -2.12393       -4.59107
H         -0.32144       -1.43781       -6.01212
