12
02/22/2025 18:31, XYZ structure generated by mol3D Class, molSimplify
C 	1.017332	-0.105853	-0.011343
C 	0.516062	-0.411681	1.391059
C 	1.017330	0.614349	2.394815
O 	-0.909183	-0.416577	1.392520
H 	0.659534	0.872713	-0.350735
H 	0.638673	-0.845317	-0.725114
H 	2.111099	-0.110320	-0.049332
H 	0.847498	-1.411932	1.690450
H 	0.659528	1.618457	2.140756
H 	0.638666	0.388643	3.397474
H 	2.111094	0.631491	2.429015
H 	-1.212478	0.467741	1.127827
