15
02/22/2025 18:31, XYZ structure generated by mol3D Class, molSimplify
C 	-2.077000	-4.745300	-5.474700
N 	-1.147800	-4.058900	-5.408100
C 	-3.231700	-5.606300	-5.562400
C 	-3.552600	-6.704300	-4.754400
C 	-4.670600	-7.301300	-5.189000
C 	-5.149600	-6.536500	-6.321200
C 	-4.262600	-5.575200	-6.516600
C 	-4.315800	-4.606000	-7.533800
N 	-4.359300	-3.812600	-8.366500
C 	-6.305200	-6.790200	-7.080800
N 	-7.251300	-6.997900	-7.702600
C 	-5.302800	-8.448500	-4.579700
N 	-5.744900	-9.395300	-4.082500
C 	-2.753900	-7.089400	-3.663300
N 	-2.099900	-7.404600	-2.770100
